26
(2R)-2-Amino-5-(diaminomethylideneamino)pentanoic acid
  N      2.1694      0.0784     -2.2820
  C      1.5771     -0.9760     -1.4246
  C      2.6968     -1.9224     -1.0071
  O      2.4991     -3.2178     -1.3400
  O      3.7267     -1.6735     -0.4078
  C      0.8700     -0.4625     -0.1605
  C     -0.4699      0.1822     -0.4803
  C     -1.1452      0.6626      0.8009
  N     -2.4305      1.3405      0.4754
  C     -3.1434      1.8747      1.6238
  N     -2.4938      2.9235      2.3614
  N     -4.2980      1.3549      1.9103
  H      2.8448      0.6053     -1.7684
  H      1.4447      0.6871     -2.6001
  H      0.8393     -1.5246     -2.0650
  H      1.5210      0.2526      0.3844
  H      0.7119     -1.3089      0.5385
  H     -1.1185     -0.5442     -1.0129
  H     -0.3347      1.0306     -1.1819
  H     -0.4888      1.3845      1.3284
  H     -1.2902     -0.1904      1.4987
  H     -3.0140      0.7284     -0.0582
  H     -3.1495      3.5736      2.7372
  H     -1.7906      3.3914      1.8321
  H     -4.8244      1.7731      2.6362
  H      3.2412     -3.7454     -1.0612
