20
(2R)-2-Amino-3-(3H-imidazol-4-yl)propanoic acid
  C      2.3636      0.8204     -0.0804
  C      0.8388      0.8053     -0.0163
  C      0.3721     -0.6070      0.3809
  H      0.5545     -0.7955      1.4599
  H      0.9724     -1.3624     -0.1653
  C     -1.0504     -0.8378      0.0523
  N     -2.1383     -0.1747      0.6470
  H     -2.0600      0.5622      1.3004
  C     -3.3154     -0.6624      0.0929
  H     -4.3327     -0.3477      0.3369
  N     -2.9883     -1.6150     -0.8082
  C     -1.6058     -1.7379     -0.8504
  H     -1.1109     -2.4502     -1.5088
  N      0.3017      1.8137      0.9287
  O      3.1518      1.2246      0.7563
  O      2.9014      0.3307     -1.2180
  H      0.4323      1.0567     -1.0287
  H      0.5435      2.7299      0.6161
  H      0.6769      1.6652      1.8430
  H      3.8522      0.3649     -1.1733
