24
(2R)-2-Amino-3-(4-hydroxyphenyl)propanoic acid
  C      2.8922     -0.8221     -1.1174
  C      1.4285     -0.8328     -0.6961
  C      1.0097      0.6023     -0.3298
  H      1.7288      1.0195      0.4035
  H      1.0702      1.2635     -1.2191
  C     -0.3639      0.6346      0.2566
  C     -1.4389      1.1258     -0.4880
  H     -1.2751      1.4887     -1.5098
  C     -2.7154      1.1673      0.0543
  H     -3.5569      1.5535     -0.5321
  C     -2.9150      0.7096      1.3642
  C     -1.8442      0.2179      2.1232
  H     -1.9966     -0.1379      3.1486
  C     -0.5751      0.1861      1.5616
  H      0.2696     -0.1942      2.1482
  O     -4.1959      0.7766      1.8369
  H     -4.1980      0.4421      2.7252
  N      0.6337     -1.4483     -1.7847
  O      3.7365     -1.4352     -0.2570
  O      3.4022     -0.3272     -2.1058
  H      1.2939     -1.4919      0.2002
  H      0.7306     -0.9184     -2.6259
  H     -0.3269     -1.4625     -1.5117
  H      4.6271     -1.4007     -0.5923
