19
(2R)-2-Amino-3-methylbutanoic acid
  H      1.4410      0.6342     -0.3201
  C      0.6569     -0.0831      0.0350
  N      1.3636     -1.3098      0.4758
  H      2.0782     -1.0622      1.1276
  H      0.7229     -1.9411      0.9098
  C     -0.1916      0.6098      1.1271
  H     -0.9830     -0.0998      1.4754
  C     -0.8673      1.8517      0.5662
  H     -0.1326      2.5885      0.2139
  H     -1.4862      2.3431      1.3286
  H     -1.5233      1.6094     -0.2804
  C      0.6695      0.9999      2.3194
  H      1.5233      1.6227      2.0186
  H      1.0675      0.1244      2.8499
  H      0.0863      1.5769      3.0499
  C     -0.2063     -0.4609     -1.1658
  O     -0.1111     -0.0607     -2.3111
  O     -1.2006     -1.3514     -0.9378
  H     -1.6530     -1.5418     -1.7539
