20
(2S)-2-Amino-4-methylsulfanylbutanoic acid
  C      0.9150     -0.8621     -0.5784
  N      2.3355     -0.4447     -0.6037
  C      0.0212      0.2579     -0.0248
  C      0.2748      0.4953      1.4526
  S     -0.7318      1.8309      2.1672
  C     -2.3715      1.0941      2.2788
  C      0.3952     -1.2668     -1.9559
  O      0.8294     -0.9610     -3.0519
  O     -0.6828     -2.0821     -1.9535
  H      0.8611     -1.7527      0.0986
  H      2.4432      0.3949     -1.1335
  H      2.8927     -1.1681     -1.0048
  H     -1.0431     -0.0170     -0.1793
  H      0.1733      1.1982     -0.5944
  H      1.3260      0.8006      1.6237
  H      0.1302     -0.4428      2.0213
  H     -2.7997      0.8499      1.2997
  H     -3.0324      1.8255      2.7597
  H     -2.3877      0.1794      2.8821
  H     -0.9470     -2.2765     -2.8477
