23
(2S)-2-Amino-3-phenylpropanoic acid
  N      0.7060     -1.9967     -0.0757
  C      1.1211     -0.6335     -0.4814
  C      0.6291      0.4897      0.4485
  C     -0.8603      0.6071      0.4224
  C     -1.4999      1.1390     -0.6995
  C     -2.8840      1.2600     -0.7219
  C     -3.6384      0.8545      0.3747
  C     -3.0052      0.3278      1.4949
  C     -1.6202      0.2033      1.5209
  C      2.6429     -0.5911     -0.5338
  O      3.1604     -0.2029     -1.7213
  O      3.4477     -0.8409      0.3447
  H     -0.2916     -2.0354     -0.0544
  H      1.0653     -2.2124      0.8310
  H      0.6990     -0.4698     -1.5067
  H      1.0737      1.4535      0.1289
  H      0.9896      0.3214      1.4846
  H     -0.9058      1.4624     -1.5623
  H     -3.3807      1.6765     -1.6044
  H     -4.7288      0.9516      0.3559
  H     -3.5968      0.0108      2.3601
  H     -1.1260     -0.2065      2.4095
  H      4.1118     -0.2131     -1.6830
